%chk=1kr8_pm6d3_optstr.chk
%nprocshared=16
%mem=32GB
#p  ub3lyp genecp scrf=(cpcm,solvent=thf) nosymm 
empiricaldispersion=gd3bj pop=hirshfeld
 
title

0  1
O           4.37800        -0.70800        10.37300
C           4.09700         0.62300         9.99300
C           5.03100         1.01700         8.83900
O           4.78300         0.12700         7.75300
C           4.73600         2.42400         8.31700
O           5.92300         2.92700         7.72700
C           3.60800         2.15800         7.32200
C           3.98900         0.78300         6.76300
N           2.82100        -0.06500         6.39000
C           1.59800        -0.21600         7.01100
N           0.83400        -1.12700         6.48200
C           1.57001        -1.58401         5.38701
C           1.25097        -2.55296         4.37697
O           0.25304        -3.25804         4.25803
N           2.23300        -2.68100         3.41400
C           3.38800        -1.95900         3.40300
N           4.22100        -2.19400         2.41700
N           3.72800        -1.06500         4.33500
C           2.77200        -0.91300         5.30400
H           4.26600         1.29000        10.84000
H           3.05500         0.70300         9.68100
H           6.06800         0.94200         9.17200
H           4.40200         3.07300         9.13000
H           2.65800         2.12600         7.85400
H           3.55300         2.90600         6.53300
H           4.60900         0.94000         5.87800
H           1.31900         0.33500         7.89900
H           2.06900        -3.33300         2.66700
H           3.98900        -2.87300         1.70700
H           5.08300        -1.67400         2.37200
H           4.26900        -1.27600         9.59700
P           6.05600         4.45500         7.23500
O           7.49300         4.79300         7.17200
O           5.13200         5.27600         8.04700
O           5.48300         4.35900         5.73400
C           6.19400         3.65700         4.72600
C           5.32400         3.48800         3.48100
O           4.22700         2.60400         3.70700
C           4.76400         4.79200         2.88800
O           5.31000         4.96200         1.58600
C           3.27900         4.46500         2.84600
C           3.22500         2.93900         2.76600
N           1.96300         2.24800         3.15900
C           1.59500         1.08000         2.48400
O           2.23100         0.65400         1.52100
N           0.50600         0.37600         2.89200
C          -0.17200         0.77500         3.95600
N          -1.21600         0.05400         4.28500
C           0.16800         1.94700         4.69400
C           1.20400         2.68200         4.22000
H           6.47900         2.66700         5.08700
H           7.09700         4.20900         4.46100
H           5.95400         3.02100         2.72100
H           4.96300         5.65800         3.52200
H           2.83500         4.82900         3.77100
H           2.75100         4.91500         2.01200
H           3.53600         2.63200         1.76400
H          -1.44500        -0.75500         3.72700
H          -1.75300         0.29300         5.10200
H          -0.38400         2.28300         5.55900
H           1.48400         3.57900         4.75300
P           4.84700         6.13700         0.57600
O           5.95300         6.38600        -0.37200
O           4.27700         7.24700         1.36900
O           3.64600         5.43100        -0.23500
C           3.88700         4.29500        -1.05100
C           2.61200         3.74200        -1.70200
O           1.66700         3.38300        -0.70200
C           1.91600         4.70900        -2.66600
O           1.38900         3.92300        -3.72300
C           0.86000         5.34200        -1.76600
C           0.49300         4.17500        -0.85400
N          -0.01600         4.54200         0.49200
C           0.19600         5.65200         1.27100
N          -0.28300         5.55300         2.48700
C          -1.05500         4.38300         2.43300
C          -1.98498         3.79199         3.36199
O          -2.30100         4.14800         4.49400
N          -2.60939         2.65313         2.87672
C          -2.37393         2.11995         1.64203
N          -2.96716         0.99355         1.31647
N          -1.52900         2.64500         0.76300
C          -0.90500         3.77600         1.20700
H           4.33200         3.50300        -0.44600
H           4.59300         4.55600        -1.84100
H           2.89600         2.84200        -2.25000
H           2.60800         5.46000        -3.05300
H           1.30800         6.15900        -1.20200
H          -0.00700         5.70800        -2.31100
H          -0.26300         3.57800        -1.36900
H           0.84100         6.46500         0.96500
H          -3.25766         2.18797         3.48833
H          -3.57888         0.52735         1.96651
H          -2.80119         0.60013         0.40091
P           0.44200         4.50800        -4.88700
O           0.72400         3.76500        -6.13300
O           0.52200         5.98600        -4.87000
O          -1.00600         4.06600        -4.33400
C          -1.36700         2.69300        -4.26500
C          -2.81500         2.49500        -3.79800
O          -2.94400         2.85500        -2.43100
C          -3.80100         3.32400        -4.62900
O          -4.96600         2.53300        -4.80501
C          -4.12300         4.46100        -3.66800
C          -4.05200         3.72400        -2.32800
N          -3.85700         4.61500        -1.16700
C          -2.92200         5.60400        -0.99700
N          -2.98500         6.21700         0.15400
C          -4.06100         5.58500         0.78600
C          -4.69000         5.72500         2.04200
N          -4.28700         6.54800         2.99300
N          -5.75800         4.98800         2.35800
C          -6.18100         4.09300         1.47700
N          -5.66000         3.80800         0.28900
C          -4.59800         4.60800        -0.00900
H          -0.69800         2.17800        -3.57800
H          -1.26300         2.23800        -5.25200
H          -3.06000         1.43800        -3.90700
H          -3.36600         3.66600        -5.57100
H          -3.36100         5.23800        -3.73600
H          -5.11500         4.87900        -3.84600
H          -4.96300         3.13400        -2.19700
H          -2.19000         5.84700        -1.75400
H          -4.78500         6.56700         3.86900
H          -3.47700         7.13000         2.84100
H          -7.03900         3.50500         1.77200
P          -5.90600         2.63500        -6.10700
O          -5.47500         3.76400        -6.95800
O          -7.32200         2.47500        -5.70700
O          -5.34800         1.24300        -6.70400
C          -5.86800         0.01100        -6.22800
C          -4.81900        -1.10900        -6.27800
O          -3.82500        -0.77000        -5.32000
C          -5.38000        -2.47100        -5.83100
O          -4.81600        -3.46800        -6.67100
C          -4.90800        -2.55800        -4.37300
C          -3.55100        -1.88600        -4.50500
N          -2.91200        -1.37800        -3.26900
C          -3.47300        -0.98300        -2.07700
N          -2.65800        -0.33500        -1.28500
C          -1.45600        -0.33100        -2.00900
C          -0.17100         0.22200        -1.81200
N           0.16500         0.99200        -0.79700
N           0.81400         0.01300        -2.69000
C           0.54100        -0.70500        -3.77000
N          -0.62000        -1.24800        -4.11500
C          -1.58700        -1.02300        -3.18300
H          -6.73000        -0.27000        -6.83500
H          -6.19700         0.11400        -5.19200
H          -4.39100        -1.17800        -7.28000
H          -6.47000        -2.49100        -5.89200
H          -5.57200        -1.97300        -3.73500
H          -4.82400        -3.57700        -4.00000
H          -2.86400        -2.55900        -5.02400
H          -4.51400        -1.14900        -1.83500
H           1.10000         1.36600        -0.74400
H          -0.53000         1.25300        -0.11300
H           1.35800        -0.85100        -4.46200
P          -5.13400        -5.04400        -6.50000
O          -4.93400        -5.70100        -7.81000
O          -6.42000        -5.18400        -5.78100
O          -3.93700        -5.48900        -5.51600
C          -2.58800        -5.40900        -5.94600
C          -1.59800        -5.50800        -4.78300
O          -1.90100        -4.58400        -3.75300
C          -1.50600        -6.88500        -4.12100
O          -0.58700        -7.68200        -4.86000
C          -1.05200        -6.52700        -2.69900
C          -1.17800        -5.00900        -2.62000
N          -1.75000        -4.48400        -1.35800
C          -2.83400        -4.85300        -0.58300
N          -3.02900        -4.09700         0.46100
C          -1.92002        -3.25697         0.48297
C          -1.50694        -2.25816         1.42911
O          -2.09683        -1.82101         2.41700
N          -0.25004        -1.74893         1.16395
C           0.53400        -2.15400         0.13000
N           1.72200        -1.60800         0.02900
N           0.15600        -3.03100        -0.80000
C          -1.09100        -3.55200        -0.57600
H          -2.41800        -4.45200        -6.44200
H          -2.38200        -6.20500        -6.66400
H          -0.60700        -5.25900        -5.17100
H          -2.49100        -7.35500        -4.08600
H          -1.69100        -7.02200        -1.96800
H          -0.01400        -6.78200        -2.52200
H          -0.16600        -4.60900        -2.72300
H          -3.52300        -5.63100        -0.88500
H           0.10800        -1.05000         1.79000
H           2.00800        -0.89200         0.67900
H           2.31200        -1.86200        -0.74600
P           0.11100        -9.03100        -4.29500
O           0.51400        -9.87500        -5.43900
O          -0.71400        -9.58600        -3.19900
O           1.44900        -8.41100        -3.64800
C           2.33000        -7.62500        -4.43500
C           3.41600        -6.98300        -3.57100
O           2.84400        -6.07300        -2.64800
C           4.24100        -8.01300        -2.79400
O           5.59300        -8.00400        -3.23000
C           4.16100        -7.56800        -1.34200
C           3.52100        -6.16200        -1.40800
N           2.49000        -5.97300        -0.33200
C           2.62000        -4.94100         0.60400
O           3.58900        -4.18100         0.59500
N           1.67900        -4.78400         1.57200
C           0.64198        -5.60686         1.60394
N          -0.26387        -5.37538         2.51920
C           0.49800        -6.71000         0.71200
C           1.44400        -6.87000        -0.24600
H           1.78100        -6.82700        -4.93700
H           2.80100        -8.25200        -5.19400
H           4.08200        -6.41900        -4.22700
H           3.82300        -9.01700        -2.89700
H           5.63400        -8.37000        -4.12400
H           3.55300        -8.27800        -0.78200
H           5.14800        -7.51000        -0.88000
H           4.30400        -5.40100        -1.36100
H          -0.13603        -4.59893         3.14992
H          -1.07608        -5.96783         2.58195
H          -0.33100        -7.40000         0.76300
H           1.36900        -7.68600        -0.95400
H          -4.53978         3.93705        -7.08844
H           1.37811         6.42034        -4.86500
H           4.85905         7.86818         1.81278
H           8.15328         4.10793         7.29969
H           1.44478       -10.01455        -5.62815
H          -4.04535        -5.86381        -8.13463

