%chk=7nbk.chk
%nprocshared=16
%mem=32GB
#p  ub3lyp genecp scrf=(cpcm,solvent=thf) nosymm 
empiricaldispersion=gd3bj pop=hirshfeld
 
title

0  1
O          15.59500        11.07100        15.45600
C          16.23200         9.80600        15.42400
C          17.74500         9.96200        15.63900
O          18.24700        11.01700        14.81700
C          18.11200        10.34000        17.07100
O          18.24400         9.18900        17.87700
C          19.45500        11.01900        16.84200
C          19.31300        11.69000        15.48200
N          19.03600        13.15200        15.60600
C          20.02200        14.06300        15.22700
O          21.16500        13.70300        14.94600
N          19.73100        15.38700        15.18000
C          18.54400        15.81800        15.57300
N          18.32700        17.11100        15.48400
C          17.55000        14.94200        16.08900
C          17.83700        13.61200        16.09100
H          16.06171         9.34300        14.45243
H          15.82228         9.16333        16.20635
H          18.25463         9.02842        15.40034
H          17.38247        11.03642        17.48953
H          19.68833        11.72649        17.63430
H          20.24121        10.26734        16.78565
H          20.25044        11.55584        14.93417
H          19.12215        17.67235        15.18729
H          17.66772        17.50127        16.13271
H          16.62887        15.31319        16.50904
H          17.13041        12.92675        16.53975
H          16.21711        11.70486        15.07789
P          18.19900         9.28000        19.48600
O          18.15500         7.90800        20.03100
O          17.17000        10.27500        19.86600
O          19.62900         9.92300        19.84400
C          20.84100         9.24800        19.56800
C          22.07300        10.11600        19.87500
O          21.96900        11.38200        19.20700
C          22.27200        10.40900        21.36400
O          23.66800        10.44800        21.63300
C          21.53500        11.74000        21.49200
C          21.78500        12.43900        20.14900
N          20.67600        13.36400        19.75300
C          19.32000        13.14800        19.82100
N          18.57800        14.18100        19.51600
C          19.51600        15.16700        19.19800
C          19.34100        16.53700        18.79400
O          18.29800        17.16800        18.63100
N          20.53700        17.19600        18.57400
C          21.76500        16.61400        18.71200
N          22.82500        17.37400        18.56500
N          21.95900        15.34900        19.08600
C          20.79800        14.66900        19.31700
H          20.86553         8.97177        18.51578
H          20.88488         8.33654        20.16502
H          22.95650         9.59166        19.51513
H          21.79696         9.65422        21.99254
H          20.47542        11.54039        21.64242
H          21.90147        12.33592        22.32217
H          22.71268        13.01519        20.23158
H          18.88912        12.20352        20.13198
H          20.50387        18.18654        18.39067
H          22.71562        18.38716        18.50889
H          23.67577        16.98135        18.91804
P          24.27200        10.92600        23.05100
O          25.54600        10.21700        23.29500
O          23.18700        10.89300        24.05700
O          24.59300        12.46700        22.69600
C          25.57900        12.82400        21.73600
C          25.87000        14.33600        21.67600
O          24.71300        15.05600        21.24900
C          26.31100        14.93300        23.02400
O          27.30900        15.90800        22.76800
C          25.00000        15.49700        23.52500
C          24.41800        16.04300        22.22400
N          22.96000        16.30600        22.26700
C          22.50000        17.56500        21.89500
O          23.22100        18.49000        21.54300
N          21.13300        17.75000        21.92700
C          20.18000        16.84200        22.32500
O          18.99600        17.17500        22.30600
C          20.73600        15.56400        22.74100
C          19.82200        14.46500        23.25300
C          22.07200        15.33600        22.69000
H          25.25004        12.49095        20.75175
H          26.50761        12.30883        21.98404
H          26.67152        14.50015        20.95720
H          26.69045        14.16765        23.70349
H          24.39509        14.69512        23.94219
H          25.14091        16.27248        24.27173
H          24.95799        16.96569        21.98140
H          20.82651        18.68159        21.69193
H          20.39515        13.65680        23.70706
H          19.14716        14.88335        24.00017
H          19.22591        14.07595        22.42901
H          22.47470        14.37639        22.98369
P          27.99300        16.81100        23.92500
O          29.42700        16.98800        23.61000
O          27.58300        16.27800        25.24200
O          27.23900        18.23100        23.71100
C          27.51400        19.03300        22.57300
C          27.13300        20.52200        22.70400
O          25.72700        20.72700        22.68300
C          27.63800        21.19800        23.98100
O          27.87000        22.56800        23.70000
C          26.45800        20.99500        24.92700
C          25.27700        21.14400        23.96800
N          24.13300        20.30000        24.36100
C          24.12600        18.95700        24.62700
N          22.95300        18.47900        24.95700
C          22.12100        19.60500        24.86200
C          20.73600        19.83900        25.01600
N          19.84500        18.90200        25.29800
N          20.23000        21.06500        24.83300
C          21.05000        22.04900        24.49100
N          22.35800        21.97500        24.29600
C          22.83300        20.71400        24.49700
H          26.99903        18.61269        21.70901
H          28.58624        18.99862        22.37781
H          27.56345        21.04741        21.85243
H          28.54304        20.71566        24.35568
H          26.50933        19.99619        25.35583
H          26.42504        21.73269        25.72463
H          24.97589        22.19650        23.92445
H          25.03081        18.36956        24.57721
H          18.86635        19.17164        25.27480
H          20.14606        17.94895        25.31501
H          20.60129        23.02283        24.34449
P          28.56200        23.54700        24.77700
C          26.41200        25.04500        25.09300
O          27.28700        24.05800        25.62000
C          25.14800        25.21600        25.94500
O          24.32200        24.06000        25.90900
C          25.41700        25.47400        27.43300
O          25.76700        26.82300        27.70300
C          24.08700        25.01400        28.06000
C          23.36200        24.25900        26.93100
N          22.74300        22.97800        27.37200
C          21.37900        22.95600        27.64500
O          20.66300        23.94200        27.48900
N          20.78700        21.82100        28.06600
C          21.53500        20.75500        28.23600
N          20.91200        19.65900        28.56500
C          22.92800        20.71700        27.98800
C          23.50300        21.86000        27.55900
O          29.13200        24.69800        24.04400
O          29.41800        22.72500        25.65700
F          23.23900        26.04500        28.42800
F          24.36300        24.21600        29.15700
H          26.94368        25.99592        25.04779
H          26.11518        24.76096        24.08222
H          24.58648        26.06107        25.54697
H          26.21491        24.79790        27.74935
H          22.57922        24.90715        26.52463
H          21.38829        18.79665        28.42123
H          19.90108        19.75082        28.52790
H          23.51667        19.82217        28.09797
H          24.55967        21.91754        27.31599
P          26.36400        27.22700        29.13700
O          27.06400        28.51800        28.98400
O          27.08100        26.05700        29.68300
O          25.05800        27.47400        30.05600
C          24.34400        28.69500        29.98400
C          23.11100        28.74000        30.89600
O          22.02600        27.98100        30.36400
C          23.36100        28.25300        32.32400
O          23.77000        29.31900        33.16600
C          21.96400        27.77900        32.71100
C          21.31700        27.32500        31.40300
N          21.39000        25.85400        31.25700
C          22.50400        25.06900        31.29400
N          22.26200        23.78500        31.34500
C          20.86800        23.71000        31.30900
C          19.97100        22.58500        31.34600
O          20.21800        21.38300        31.40900
N          18.63900        22.95700        31.32900
C          18.20300        24.24700        31.26300
N          16.91000        24.46000        31.30200
N          19.00300        25.31100        31.23000
C          20.32800        24.97700        31.24800
H          24.02530        28.85459        28.95203
H          25.01956        29.50512        30.25848
H          22.77208        29.77400        30.94496
H          24.06422        27.41604        32.32751
H          24.67818        29.51842        32.90877
H          22.00555        26.98198        33.45416
H          21.39157        28.61953        33.10386
H          20.26224        27.60611        31.37024
H          23.50859        25.47548        31.25323
H          17.97042        22.20564        31.30702
H          16.27028        23.67001        31.31115
H          16.62686        25.38112        31.04299
O          12.13600        16.79700        32.92300
C          11.23400        17.72700        33.50100
C          11.46100        19.18200        33.04400
O          12.65400        19.75700        33.57100
C          11.55000        19.36100        31.53300
O          10.25900        19.37500        30.96700
C          12.23200        20.72200        31.46200
C          13.22200        20.66200        32.62300
N          14.58300        20.20600        32.19400
C          15.55800        21.16400        31.90700
O          15.28600        22.36600        31.89300
N          16.84000        20.79900        31.66300
C          17.15700        19.51200        31.64100
N          18.43300        19.22600        31.50300
C          16.18900        18.48800        31.86200
C          14.91600        18.87100        32.14400
H          11.32109        17.68640        34.58661
H          10.21793        17.44272        33.22145
H          10.61938        19.78352        33.38751
H          12.19034        18.60121        31.08133
H          12.72232        20.88332        30.50342
H          11.50415        21.51227        31.64260
H          13.31794        21.66359        33.05110
H          19.03108        20.02531        31.29701
H          18.66817        18.33136        31.13070
H          16.45188        17.44574        31.81255
H          14.15339        18.12818        32.32649
H          11.99272        16.79058        31.96263
P          10.04300        19.06400        29.40700
O           8.59400        18.95600        29.14900
O          10.96000        17.96300        29.03900
O          10.58700        20.41600        28.72600
C           9.94100        21.65800        28.93600
C          10.62200        22.79700        28.16500
O          11.99800        22.91300        28.54800
C          10.57900        22.59300        26.65100
O          10.37900        23.84100        26.01100
C          11.94000        21.96200        26.39500
C          12.85000        22.60300        27.44700
N          13.95800        21.69200        27.85100
C          13.87300        20.35600        28.16200
N          15.01600        19.77300        28.38700
C          15.94700        20.79700        28.20900
C          17.38200        20.78200        28.28100
O          18.13900        19.84100        28.49800
N          17.95600        22.02000        28.05700
C          17.24300        23.14400        27.76200
N          17.92500        24.24000        27.52400
N          15.91100        23.18900        27.65200
C          15.31100        21.98200        27.89800
H           9.94980        21.89691        29.99756
H           8.90471        21.57842        28.60502
H          10.10466        23.72654        28.39572
H           9.78449        21.90130        26.36357
H          11.85462        20.88615        26.53635
H          12.29481        22.15853        25.39008
H          13.27052        23.52368        27.03052
H          12.92900        19.82430        28.20558
H          18.96348        22.04974        28.01610
H          18.94001        24.18483        27.45025
H          17.41000        24.95815        27.05429
P          10.33000        23.97500        24.40400
O           9.40000        25.06700        24.04400
O          10.16900        22.62600        23.81700
O          11.83900        24.46200        24.12700
C          12.26900        25.74300        24.54900
C          13.66800        26.11500        24.04200
O          14.64100        25.25200        24.62300
C          13.81700        26.03200        22.51600
O          14.64300        27.10500        22.08600
C          14.45600        24.65900        22.36900
C          15.38200        24.63400        23.58600
N          15.80000        23.26600        24.00200
C          17.15800        23.03700        24.24000
O          18.03000        23.89600        24.14100
N          17.51200        21.75600        24.59200
C          16.66800        20.67600        24.70500
O          17.15000        19.59000        25.01200
C          15.26300        20.97600        24.43700
C          14.22600        19.86600        24.51000
C          14.87800        22.24500        24.12100
H          12.26822        25.77722        25.63843
H          11.56521        26.48838        24.17693
H          13.87980        27.13891        24.34629
H          12.84975        26.06811        22.01136
H          13.67647        23.90367        22.41738
H          14.99914        24.55183        21.43591
H          16.26168        25.24465        23.35218
H          18.49624        21.58271        24.72197
H          13.23954        20.23060        24.22426
H          14.51852        19.06244        23.83388
H          14.19119        19.46954        25.52411
H          13.83649        22.46609        23.93908
P          15.04100        27.35700        20.53900
O          14.90900        28.80100        20.24400
O          14.37700        26.35300        19.68400
O          16.60900        27.00600        20.58300
C          17.49400        27.85600        21.28400
C          18.98200        27.56200        21.07200
O          19.34100        26.30400        21.62200
C          19.41700        27.56100        19.60600
O          20.73000        28.09600        19.55300
C          19.31300        26.08200        19.26300
C          19.70600        25.41100        20.58000
N          18.98800        24.13600        20.78700
C          17.63600        23.90700        20.76300
N          17.29500        22.66300        20.96800
C          18.52900        22.02900        21.15300
C          18.92800        20.70100        21.41300
N          18.07900        19.69500        21.55800
N          20.22200        20.38700        21.51200
C          21.12100        21.35700        21.38300
N          20.89400        22.64500        21.15700
C          19.56400        22.91800        21.04800
H          17.27692        27.78691        22.35015
H          17.31663        28.88392        20.96597
H          19.54723        28.33524        21.59062
H          18.73670        28.15633        18.99392
H          18.28478        25.85240        18.98775
H          19.98464        25.80582        18.45493
H          20.78840        25.24330        20.59728
H          16.93036        24.70116        20.57220
H          18.44962        18.78795        21.82117
H          17.10029        19.90051        21.56439
H          22.15921        21.06499        21.47705
P          21.47900        28.39200        18.16100
C          23.19200        26.42600        18.65400
O          22.14800        26.95300        17.83700
C          23.44300        24.92300        18.43100
O          22.27400        24.14900        18.68400
C          23.92600        24.54000        17.01800
O          25.35300        24.65500        16.92800
C          23.35800        23.10600        16.89500
C          22.54300        22.85300        18.17300
N          21.28900        22.06200        17.96600
C          21.33400        20.68000        18.10000
O          22.38100        20.08000        18.32700
N          20.20300        19.94300        18.02100
C          19.07300        20.56000        17.77900
N          18.01300        19.80500        17.78700
C          18.96600        21.95400        17.58100
C          20.10600        22.67400        17.66900
O          22.53500        29.38500        18.44600
O          20.42300        28.72000        17.17800
F          24.32100        22.11800        16.85100
F          22.55300        23.05000        15.77200
H          24.11231        26.97706        18.45777
H          22.92431        26.56645        19.70217
H          24.21555        24.60940        19.13484
H          23.43570        25.19273        16.29267
H          23.17718        22.32556        18.89508
H          17.14441        20.27575        17.92386
H          18.19978        18.88548        18.17703
H          18.02760        22.44775        17.39497
H          20.10941        23.75192        17.55403
P          26.13300        24.56600        15.51800
O          27.38700        25.35600        15.61200
O          25.16900        24.83000        14.43400
O          26.57300        23.02500        15.40400
C          27.52800        22.49200        16.30000
C          27.91400        21.03900        15.98500
O          26.79400        20.17900        16.15500
C          28.43800        20.83600        14.55600
O          29.50500        19.90100        14.53300
C          27.21300        20.31900        13.82000
C          26.41900        19.59800        14.91400
N          24.95500        19.68400        14.70200
C          24.20200        20.77200        14.32900
N          22.92500        20.52900        14.21900
C          22.81800        19.18300        14.55200
C          21.66600        18.33600        14.64800
O          20.47600        18.61900        14.51800
N          21.99600        17.02000        14.91800
C          23.25900        16.56600        15.13900
N          23.39800        15.27100        15.33300
N          24.34900        17.33600        15.11500
C          24.06000        18.64200        14.81400
H          27.12072        22.53641        17.31236
H          28.42672        23.10946        16.27087
H          28.68506        20.76077        16.70312
H          28.76138        21.79020        14.13242
H          29.27447        19.20709        15.16056
H          26.66199        21.17903        13.43905
H          27.47628        19.64964        13.00223
H          26.69194        18.54241        14.93759
H          24.62204        21.76632        14.20311
H          21.22457        16.38970        15.03419
H          22.57578        14.67667        15.37163
H          24.28481        14.99822        15.70350
H          25.48426        25.04456        13.55299
H          20.66271        29.01423        16.29620
H          14.90370        25.74194        19.16362
H          10.94323        22.10554        23.59053
H          11.90993        18.09453        29.08296
H          28.04087        26.04249        29.68977
H          30.37373        22.78675        25.59089
H          28.24870        16.01851        25.88318
H          23.40053        10.86231        24.99245
H          17.43441        11.13714        20.19526

